<routes>
    <vType id="type1" accel="1.0" decel="1.0" sigma="0.5" length="5" minGap="2.5" maxSpeed="13.89" color="1,1,0"/>
    
    <vType id="type2" accel="1.0" decel="1.0" sigma="0.5" length="5" minGap="2.5" maxSpeed="13.89" color="0,1,0"/>
     
    <!-- Routes -->
    <route id="route0" edges="E2 -E1"/>
    <route id="route1" edges="E2 E0"/>
    <route id="route2" edges="E2 -E3 -E4"/>
    <route id="route3" edges="E2 -E3 E5"/>
    <route id="route4" edges="E2 -E3 E6"/>

    <route id="route5" edges="E1 E0"/>
    <route id="route6" edges="E1 -E2"/>
    <route id="route7" edges="E1 -E3 -E4"/>
    <route id="route8" edges="E1 -E3 E5"/>
    <route id="route9" edges="E1 -E3 E6"/>

    <route id="route10" edges="-E0 -E2"/>
    <route id="route11" edges="-E0 -E1"/>
    <route id="route12" edges="-E0 -E3 -E4"/>
    <route id="route13" edges="-E0 -E3 E5"/>
    <route id="route14" edges="-E0 -E3 E6"/>

    <route id="route15" edges="-E6 -E4"/>
    <route id="route16" edges="-E6 E5"/>
    <route id="route17" edges="-E6 E3 E0"/>
    <route id="route18" edges="-E6 E3 -E1"/>
    <route id="route19" edges="-E6 E3 -E2"/>

    <route id="route20" edges="-E5 E6"/>
    <route id="route21" edges="-E5 -E4"/>
    <route id="route22" edges="-E5 E3 E0"/>
    <route id="route23" edges="-E5 E3 -E1"/>
    <route id="route24" edges="-E5 E3 -E2"/>

    <route id="route25" edges="E4 E5"/>
    <route id="route26" edges="E4 E6"/>
    <route id="route27" edges="E4 E3 E0"/>
    <route id="route28" edges="E4 E3 -E1"/>
    <route id="route29" edges="E4 E3 -E2"/>

    
    <!-- Flows -->
    <flow id="flow0" type="type1" route="route0" begin="0" end="100000" probability="0.01"/>
    <flow id="flow1" type="type1" route="route1" begin="0" end="100000" probability="0.01"/>
    <flow id="flow2" type="type1" route="route2" begin="0" end="100000" probability="0.01"/>
    <flow id="flow3" type="type1" route="route3" begin="0" end="100000" probability="0.01"/>
    <flow id="flow4" type="type1" route="route4" begin="0" end="100000" probability="0.01"/>
    <flow id="flow5" type="type1" route="route5" begin="0" end="100000" probability="0.01"/>
    <flow id="flow6" type="type1" route="route6" begin="0" end="100000" probability="0.01"/>
    <flow id="flow7" type="type1" route="route7" begin="0" end="100000" probability="0.01"/>
    <flow id="flow8" type="type1" route="route8" begin="0" end="100000" probability="0.01"/>
    <flow id="flow9" type="type1" route="route9" begin="0" end="100000" probability="0.01"/>
    <flow id="flow10" type="type1" route="route10" begin="0" end="100000" probability="0.01"/>
    <flow id="flow11" type="type1" route="route11" begin="0" end="100000" probability="0.01"/>
    <flow id="flow12" type="type2" route="route12" begin="0" end="100000" probability="0.01"/>
    <flow id="flow13" type="type1" route="route13" begin="0" end="100000" probability="0.01"/>
    <flow id="flow14" type="type1" route="route14" begin="0" end="100000" probability="0.01"/>
    <flow id="flow15" type="type1" route="route15" begin="0" end="100000" probability="0.01"/>
    <flow id="flow16" type="type1" route="route16" begin="0" end="100000" probability="0.01"/>
    <flow id="flow17" type="type1" route="route17" begin="0" end="100000" probability="0.01"/>
    <flow id="flow18" type="type1" route="route18" begin="0" end="100000" probability="0.01"/>
    <flow id="flow19" type="type1" route="route19" begin="0" end="100000" probability="0.01"/>
    <flow id="flow20" type="type1" route="route20" begin="0" end="100000" probability="0.01"/>
    <flow id="flow21" type="type1" route="route21" begin="0" end="100000" probability="0.01"/>
    <flow id="flow22" type="type1" route="route22" begin="0" end="100000" probability="0.01"/>
    <flow id="flow23" type="type1" route="route23" begin="0" end="100000" probability="0.01"/>
    <flow id="flow24" type="type1" route="route24" begin="0" end="100000" probability="0.01"/>
    <flow id="flow25" type="type1" route="route25" begin="0" end="100000" probability="0.01"/>
    <flow id="flow26" type="type1" route="route26" begin="0" end="100000" probability="0.01"/>
    <flow id="flow27" type="type1" route="route27" begin="0" end="100000" probability="0.01"/>
    <flow id="flow28" type="type1" route="route28" begin="0" end="100000" probability="0.01"/>
    <flow id="flow29" type="type1" route="route29" begin="0" end="100000" probability="0.01"/>
    <!--<flow id="flow30" type="type2" route="route3" begin="0" end="100000" probability="0.01"/>
    -->

</routes>
 
