<?xml version="1.0" encoding="UTF-8"?>

<!-- generated on 2024-08-13 14:44:20 by Eclipse SUMO jtrrouter Version 1.20.0
<configuration xmlns:xsi="http://www.w3.org/2001/XMLSchema-instance" xsi:noNamespaceSchemaLocation="http://sumo.dlr.de/xsd/jtrrouterConfiguration.xsd">

    <input>
        <net-file value="/home/lxh/Downloads/sumo-rl-master-plymouth/sumo_rl/nets/plymouth/plymouth_nixon_and_huron.net.xml"/>
        <route-files value="/home/lxh/Downloads/sumo-rl-master-plymouth/sumo_rl/nets/plymouth/plymouth_test_flow.xml"/>
        <turn-ratio-files value="/home/lxh/Downloads/sumo-rl-master-plymouth/sumo_rl/nets/plymouth/plymouth.turn.xml"/>
    </input>

    <output>
        <output-file value="plymouth_test_rou.xml"/>
    </output>

    <time>
        <begin value="0"/>
        <end value="3600"/>
    </time>

</configuration>
-->

<routes xmlns:xsi="http://www.w3.org/2001/XMLSchema-instance" xsi:noNamespaceSchemaLocation="http://sumo.dlr.de/xsd/routes_file.xsd">
    <vehicle id="49.0" depart="0.00" departLane="random">
        <route edges="-p17 -p15 -p14 -p13 -p12 -p11 -p10"/>
    </vehicle>
    <vehicle id="39.0" depart="2.00" departLane="random">
        <route edges="p10 p11 4#3 4#4"/>
    </vehicle>
    <vehicle id="50.0" depart="2.00" departLane="random">
        <route edges="-5#4 -5#3 p15 p16 p17"/>
    </vehicle>
    <vehicle id="40.0" depart="3.00" departLane="random">
        <route edges="-4#4 -4#3 -p11 -p10"/>
    </vehicle>
    <vehicle id="49.1" depart="3.00" departLane="random">
        <route edges="-p17 -p15 -p14 -p13 -p12 -p11 -p10"/>
    </vehicle>
    <vehicle id="39.1" depart="5.00" departLane="random">
        <route edges="p10 p11 p12 p13 p14 p15 p16 p17"/>
    </vehicle>
    <vehicle id="40.1" depart="9.00" departLane="random">
        <route edges="-4#4 -4#3 p12 p13 p14 5#3 5#4"/>
    </vehicle>
    <vehicle id="39.2" depart="10.00" departLane="random">
        <route edges="p10 p11 p12 p13 p14 p15 p16 p17"/>
    </vehicle>
    <vehicle id="49.2" depart="13.00" departLane="random">
        <route edges="-p17 -p15 -p14 -p13 -p12 -p11 -p10"/>
    </vehicle>
    <vehicle id="51.0" depart="13.00" departLane="random">
        <route edges="5#1 5#2 p15 p16 p17"/>
    </vehicle>
    <vehicle id="50.1" depart="15.00" departLane="random">
        <route edges="-5#4 -5#3 p15 p16 p17"/>
    </vehicle>
    <vehicle id="39.3" depart="16.00" departLane="random">
        <route edges="p10 p11 p12 p13 p14 p15 p16 p17"/>
    </vehicle>
    <vehicle id="39.4" depart="20.00" departLane="random">
        <route edges="p10 p11 4#3 4#4"/>
    </vehicle>
    <vehicle id="50.2" depart="20.00" departLane="random">
        <route edges="-5#4 -5#3 p15 p16 p17"/>
    </vehicle>
    <vehicle id="40.2" depart="21.00" departLane="random">
        <route edges="-4#4 -4#3 -p11 -p10"/>
    </vehicle>
    <vehicle id="51.1" depart="21.00" departLane="random">
        <route edges="5#1 5#2 5#3 5#4"/>
    </vehicle>
    <vehicle id="51.2" depart="27.00" departLane="random">
        <route edges="5#1 5#2 5#3 5#4"/>
    </vehicle>
    <vehicle id="49.3" depart="28.00" departLane="random">
        <route edges="-p17 -p15 5#3 5#4"/>
    </vehicle>
    <vehicle id="50.3" depart="29.00" departLane="random">
        <route edges="-5#4 -5#3 -5#22 -5#21 -5#1"/>
    </vehicle>
    <vehicle id="39.5" depart="30.00" departLane="random">
        <route edges="p10 p11 p12 p13 p14 -5#22 -5#21 -5#1"/>
    </vehicle>
    <vehicle id="39.6" depart="33.00" departLane="random">
        <route edges="p10 p11 p12 p13 p14 p15 p16 p17"/>
    </vehicle>
    <vehicle id="51.3" depart="33.00" departLane="random">
        <route edges="5#1 5#2 5#3 5#4"/>
    </vehicle>
    <vehicle id="39.7" depart="35.00" departLane="random">
        <route edges="p10 p11 4#3 4#4"/>
    </vehicle>
    <vehicle id="50.4" depart="36.00" departLane="random">
        <route edges="-5#4 -5#3 -5#22 -5#21 -5#1"/>
    </vehicle>
    <vehicle id="49.4" depart="37.00" departLane="random">
        <route edges="-p17 -p15 -p14 -p13 -p12 -p11 -p10"/>
    </vehicle>
    <vehicle id="39.8" depart="38.00" departLane="random">
        <route edges="p10 p11 p12 p13 p14 p15 p16 p17"/>
    </vehicle>
    <vehicle id="39.9" depart="39.00" departLane="random">
        <route edges="p10 p11 -4#2 -4#1"/>
    </vehicle>
    <vehicle id="40.3" depart="40.00" departLane="random">
        <route edges="-4#4 -4#3 p12 p13 p14 p15 p16 p17"/>
    </vehicle>
    <vehicle id="51.4" depart="40.00" departLane="random">
        <route edges="5#1 5#2 p15 p16 p17"/>
    </vehicle>
    <vehicle id="40.4" depart="43.00" departLane="random">
        <route edges="-4#4 -4#3 p12 p13 p14 p15 p16 p17"/>
    </vehicle>
    <vehicle id="40.5" depart="44.00" departLane="random">
        <route edges="-4#4 -4#3 -p11 -p10"/>
    </vehicle>
    <vehicle id="49.5" depart="44.00" departLane="random">
        <route edges="-p17 -p15 -p14 -p13 -p12 -p11 -p10"/>
    </vehicle>
    <vehicle id="40.6" depart="45.00" departLane="random">
        <route edges="-4#4 -4#3 -p11 -p10"/>
    </vehicle>
    <vehicle id="49.6" depart="45.00" departLane="random">
        <route edges="-p17 -p15 -p14 -p13 -p12 -p11 -p10"/>
    </vehicle>
    <vehicle id="41.0" depart="46.00" departLane="random">
        <route edges="4#1 4#2 -p11 -p10"/>
    </vehicle>
    <vehicle id="39.10" depart="48.00" departLane="random">
        <route edges="p10 p11 4#3 4#4"/>
    </vehicle>
    <vehicle id="40.7" depart="50.00" departLane="random">
        <route edges="-4#4 -4#3 p12 p13 p14 p15 p16 p17"/>
    </vehicle>
    <vehicle id="49.7" depart="51.00" departLane="random">
        <route edges="-p17 -p15 -p14 -p13 -p12 -p11 -p10"/>
    </vehicle>
    <vehicle id="49.8" depart="52.00" departLane="random">
        <route edges="-p17 -p15 -p14 -p13 -p12 -p11 -p10"/>
    </vehicle>
    <vehicle id="51.5" depart="54.00" departLane="random">
        <route edges="5#1 5#2 5#3 5#4"/>
    </vehicle>
    <vehicle id="49.9" depart="55.00" departLane="random">
        <route edges="-p17 -p15 -p14 -p13 -p12 -p11 -p10"/>
    </vehicle>
    <vehicle id="49.10" depart="60.00" departLane="random">
        <route edges="-p17 -p15 -p14 -p13 -p12 -p11 -p10"/>
    </vehicle>
    <vehicle id="39.11" depart="62.00" departLane="random">
        <route edges="p10 p11 4#3 4#4"/>
    </vehicle>
    <vehicle id="39.12" depart="63.00" departLane="random">
        <route edges="p10 p11 4#3 4#4"/>
    </vehicle>
    <vehicle id="50.5" depart="63.00" departLane="random">
        <route edges="-5#4 -5#3 p15 p16 p17"/>
    </vehicle>
    <vehicle id="51.6" depart="65.00" departLane="random">
        <route edges="5#1 5#2 5#3 5#4"/>
    </vehicle>
    <vehicle id="39.13" depart="67.00" departLane="random">
        <route edges="p10 p11 p12 p13 p14 -5#22 -5#21 -5#1"/>
    </vehicle>
    <vehicle id="49.11" depart="67.00" departLane="random">
        <route edges="-p17 -p15 -p14 -p13 -p12 -p11 -p10"/>
    </vehicle>
    <vehicle id="51.7" depart="69.00" departLane="random">
        <route edges="5#1 5#2 p15 p16 p17"/>
    </vehicle>
    <vehicle id="40.8" depart="71.00" departLane="random">
        <route edges="-4#4 -4#3 p12 p13 p14 p15 p16 p17"/>
    </vehicle>
    <vehicle id="39.14" depart="72.00" departLane="random">
        <route edges="p10 p11 p12 p13 p14 p15 p16 p17"/>
    </vehicle>
    <vehicle id="49.12" depart="72.00" departLane="random">
        <route edges="-p17 -p15 -p14 -p13 -p12 -p11 -p10"/>
    </vehicle>
    <vehicle id="51.8" depart="72.00" departLane="random">
        <route edges="5#1 5#2 -p14 -p13 -p12 -p11 -p10"/>
    </vehicle>
    <vehicle id="41.1" depart="73.00" departLane="random">
        <route edges="4#1 4#2 p12 p13 p14 p15 p16 p17"/>
    </vehicle>
    <vehicle id="50.6" depart="73.00" departLane="random">
        <route edges="-5#4 -5#3 -5#22 -5#21 -5#1"/>
    </vehicle>
    <vehicle id="40.9" depart="74.00" departLane="random">
        <route edges="-4#4 -4#3 p12 p13 p14 p15 p16 p17"/>
    </vehicle>
    <vehicle id="49.13" depart="74.00" departLane="random">
        <route edges="-p17 -p15 -p14 -p13 -p12 -p11 -p10"/>
    </vehicle>
    <vehicle id="51.9" depart="74.00" departLane="random">
        <route edges="5#1 5#2 5#3 5#4"/>
    </vehicle>
    <vehicle id="39.15" depart="76.00" departLane="random">
        <route edges="p10 p11 p12 p13 p14 p15 p16 p17"/>
    </vehicle>
    <vehicle id="39.16" depart="77.00" departLane="random">
        <route edges="p10 p11 4#3 4#4"/>
    </vehicle>
    <vehicle id="50.7" depart="77.00" departLane="random">
        <route edges="-5#4 -5#3 -5#22 -5#21 -5#1"/>
    </vehicle>
    <vehicle id="49.14" depart="78.00" departLane="random">
        <route edges="-p17 -p15 -p14 -p13 -p12 -p11 -p10"/>
    </vehicle>
    <vehicle id="51.10" depart="79.00" departLane="random">
        <route edges="5#1 5#2 5#3 5#4"/>
    </vehicle>
    <vehicle id="40.10" depart="80.00" departLane="random">
        <route edges="-4#4 -4#3 -p11 -p10"/>
    </vehicle>
    <vehicle id="41.2" depart="81.00" departLane="random">
        <route edges="4#1 4#2 p12 p13 p14 p15 p16 p17"/>
    </vehicle>
    <vehicle id="49.15" depart="84.00" departLane="random">
        <route edges="-p17 -p15 -5#22 -5#21 -5#1"/>
    </vehicle>
    <vehicle id="51.11" depart="87.00" departLane="random">
        <route edges="5#1 5#2 5#3 5#4"/>
    </vehicle>
    <vehicle id="39.17" depart="92.00" departLane="random">
        <route edges="p10 p11 4#3 4#4"/>
    </vehicle>
    <vehicle id="39.18" depart="94.00" departLane="random">
        <route edges="p10 p11 4#3 4#4"/>
    </vehicle>
    <vehicle id="41.3" depart="94.00" departLane="random">
        <route edges="4#1 4#2 -p11 -p10"/>
    </vehicle>
    <vehicle id="41.4" depart="95.00" departLane="random">
        <route edges="4#1 4#2 p12 p13 p14 -5#22 -5#21 -5#1"/>
    </vehicle>
    <vehicle id="51.12" depart="100.00" departLane="random">
        <route edges="5#1 5#2 -p14 -p13 -p12 -p11 -p10"/>
    </vehicle>
    <vehicle id="49.16" depart="101.00" departLane="random">
        <route edges="-p17 -p15 -p14 -p13 -p12 -p11 -p10"/>
    </vehicle>
    <vehicle id="49.17" depart="102.00" departLane="random">
        <route edges="-p17 -p15 -p14 -p13 -p12 -p11 -p10"/>
    </vehicle>
    <vehicle id="40.11" depart="103.00" departLane="random">
        <route edges="-4#4 -4#3 p12 p13 p14 p15 p16 p17"/>
    </vehicle>
    <vehicle id="50.8" depart="104.00" departLane="random">
        <route edges="-5#4 -5#3 -5#22 -5#21 -5#1"/>
    </vehicle>
    <vehicle id="49.18" depart="108.00" departLane="random">
        <route edges="-p17 -p15 -p14 -p13 -p12 -p11 -p10"/>
    </vehicle>
    <vehicle id="51.13" depart="108.00" departLane="random">
        <route edges="5#1 5#2 5#3 5#4"/>
    </vehicle>
    <vehicle id="39.19" depart="109.00" departLane="random">
        <route edges="p10 p11 p12 p13 p14 p15 p16 p17"/>
    </vehicle>
    <vehicle id="41.5" depart="110.00" departLane="random">
        <route edges="4#1 4#2 -p11 -p10"/>
    </vehicle>
    <vehicle id="40.12" depart="111.00" departLane="random">
        <route edges="-4#4 -4#3 -p11 -p10"/>
    </vehicle>
    <vehicle id="49.19" depart="112.00" departLane="random">
        <route edges="-p17 -p15 -5#22 -5#21 -5#1"/>
    </vehicle>
    <vehicle id="51.14" depart="113.00" departLane="random">
        <route edges="5#1 5#2 5#3 5#4"/>
    </vehicle>
    <vehicle id="39.20" depart="115.00" departLane="random">
        <route edges="p10 p11 4#3 4#4"/>
    </vehicle>
    <vehicle id="40.13" depart="115.00" departLane="random">
        <route edges="-4#4 -4#3 p12 p13 p14 p15 p16 p17"/>
    </vehicle>
    <vehicle id="40.14" depart="116.00" departLane="random">
        <route edges="-4#4 -4#3 p12 p13 p14 p15 p16 p17"/>
    </vehicle>
    <vehicle id="39.21" depart="117.00" departLane="random">
        <route edges="p10 p11 4#3 4#4"/>
    </vehicle>
    <vehicle id="50.9" depart="117.00" departLane="random">
        <route edges="-5#4 -5#3 p15 p16 p17"/>
    </vehicle>
    <vehicle id="40.15" depart="118.00" departLane="random">
        <route edges="-4#4 -4#3 p12 p13 p14 p15 p16 p17"/>
    </vehicle>
    <vehicle id="51.15" depart="118.00" departLane="random">
        <route edges="5#1 5#2 5#3 5#4"/>
    </vehicle>
    <vehicle id="49.20" depart="119.00" departLane="random">
        <route edges="-p17 -p15 -p14 -p13 -p12 -p11 -p10"/>
    </vehicle>
    <vehicle id="39.22" depart="121.00" departLane="random">
        <route edges="p10 p11 p12 p13 p14 p15 p16 p17"/>
    </vehicle>
    <vehicle id="50.10" depart="121.00" departLane="random">
        <route edges="-5#4 -5#3 -5#22 -5#21 -5#1"/>
    </vehicle>
    <vehicle id="51.16" depart="121.00" departLane="random">
        <route edges="5#1 5#2 5#3 5#4"/>
    </vehicle>
    <vehicle id="49.21" depart="122.00" departLane="random">
        <route edges="-p17 -p15 -p14 -p13 -p12 -p11 -p10"/>
    </vehicle>
    <vehicle id="50.11" depart="123.00" departLane="random">
        <route edges="-5#4 -5#3 -p14 -p13 -p12 -p11 -p10"/>
    </vehicle>
    <vehicle id="51.17" depart="123.00" departLane="random">
        <route edges="5#1 5#2 p15 p16 p17"/>
    </vehicle>
    <vehicle id="50.12" depart="124.00" departLane="random">
        <route edges="-5#4 -5#3 -5#22 -5#21 -5#1"/>
    </vehicle>
    <vehicle id="49.22" depart="125.00" departLane="random">
        <route edges="-p17 -p15 -p14 -p13 -p12 -p11 -p10"/>
    </vehicle>
    <vehicle id="39.23" depart="126.00" departLane="random">
        <route edges="p10 p11 4#3 4#4"/>
    </vehicle>
    <vehicle id="49.23" depart="126.00" departLane="random">
        <route edges="-p17 -p15 -p14 -p13 -p12 -p11 -p10"/>
    </vehicle>
    <vehicle id="50.13" depart="130.00" departLane="random">
        <route edges="-5#4 -5#3 p15 p16 p17"/>
    </vehicle>
    <vehicle id="49.24" depart="131.00" departLane="random">
        <route edges="-p17 -p15 -p14 -p13 -p12 -p11 -p10"/>
    </vehicle>
    <vehicle id="51.18" depart="134.00" departLane="random">
        <route edges="5#1 5#2 p15 p16 p17"/>
    </vehicle>
    <vehicle id="49.25" depart="135.00" departLane="random">
        <route edges="-p17 -p15 -p14 -p13 -p12 -p11 -p10"/>
    </vehicle>
    <vehicle id="51.19" depart="135.00" departLane="random">
        <route edges="5#1 5#2 -p14 -p13 -p12 -p11 -p10"/>
    </vehicle>
    <vehicle id="39.24" depart="137.00" departLane="random">
        <route edges="p10 p11 4#3 4#4"/>
    </vehicle>
    <vehicle id="49.26" depart="137.00" departLane="random">
        <route edges="-p17 -p15 -p14 -p13 -p12 -p11 -p10"/>
    </vehicle>
    <vehicle id="51.20" depart="139.00" departLane="random">
        <route edges="5#1 5#2 p15 p16 p17"/>
    </vehicle>
    <vehicle id="51.21" depart="140.00" departLane="random">
        <route edges="5#1 5#2 -p14 -p13 -p12 -p11 -p10"/>
    </vehicle>
    <vehicle id="40.16" depart="142.00" departLane="random">
        <route edges="-4#4 -4#3 -4#2 -4#1"/>
    </vehicle>
    <vehicle id="39.25" depart="143.00" departLane="random">
        <route edges="p10 p11 p12 p13 p14 p15 p16 p17"/>
    </vehicle>
    <vehicle id="51.22" depart="143.00" departLane="random">
        <route edges="5#1 5#2 p15 p16 p17"/>
    </vehicle>
    <vehicle id="49.27" depart="145.00" departLane="random">
        <route edges="-p17 -p15 5#3 5#4"/>
    </vehicle>
    <vehicle id="49.28" depart="147.00" departLane="random">
        <route edges="-p17 -p15 -5#22 -5#21 -5#1"/>
    </vehicle>
    <vehicle id="50.14" depart="151.00" departLane="random">
        <route edges="-5#4 -5#3 p15 p16 p17"/>
    </vehicle>
    <vehicle id="49.29" depart="152.00" departLane="random">
        <route edges="-p17 -p15 -5#22 -5#21 -5#1"/>
    </vehicle>
    <vehicle id="39.26" depart="153.00" departLane="random">
        <route edges="p10 p11 p12 p13 p14 p15 p16 p17"/>
    </vehicle>
    <vehicle id="39.27" depart="156.00" departLane="random">
        <route edges="p10 p11 p12 p13 p14 p15 p16 p17"/>
    </vehicle>
    <vehicle id="39.28" depart="160.00" departLane="random">
        <route edges="p10 p11 p12 p13 p14 -5#22 -5#21 -5#1"/>
    </vehicle>
    <vehicle id="40.17" depart="161.00" departLane="random">
        <route edges="-4#4 -4#3 -p11 -p10"/>
    </vehicle>
    <vehicle id="49.30" depart="162.00" departLane="random">
        <route edges="-p17 -p15 5#3 5#4"/>
    </vehicle>
    <vehicle id="51.23" depart="162.00" departLane="random">
        <route edges="5#1 5#2 5#3 5#4"/>
    </vehicle>
    <vehicle id="50.15" depart="163.00" departLane="random">
        <route edges="-5#4 -5#3 p15 p16 p17"/>
    </vehicle>
    <vehicle id="49.31" depart="164.00" departLane="random">
        <route edges="-p17 -p15 -5#22 -5#21 -5#1"/>
    </vehicle>
    <vehicle id="41.6" depart="168.00" departLane="random">
        <route edges="4#1 4#2 4#3 4#4"/>
    </vehicle>
    <vehicle id="51.24" depart="168.00" departLane="random">
        <route edges="5#1 5#2 p15 p16 p17"/>
    </vehicle>
    <vehicle id="40.18" depart="169.00" departLane="random">
        <route edges="-4#4 -4#3 p12 p13 p14 p15 p16 p17"/>
    </vehicle>
    <vehicle id="49.32" depart="169.00" departLane="random">
        <route edges="-p17 -p15 -5#22 -5#21 -5#1"/>
    </vehicle>
    <vehicle id="50.16" depart="169.00" departLane="random">
        <route edges="-5#4 -5#3 -5#22 -5#21 -5#1"/>
    </vehicle>
    <vehicle id="39.29" depart="172.00" departLane="random">
        <route edges="p10 p11 p12 p13 p14 -5#22 -5#21 -5#1"/>
    </vehicle>
    <vehicle id="40.19" depart="173.00" departLane="random">
        <route edges="-4#4 -4#3 p12 p13 p14 5#3 5#4"/>
    </vehicle>
    <vehicle id="50.17" depart="174.00" departLane="random">
        <route edges="-5#4 -5#3 p15 p16 p17"/>
    </vehicle>
    <vehicle id="40.20" depart="175.00" departLane="random">
        <route edges="-4#4 -4#3 -p11 -p10"/>
    </vehicle>
    <vehicle id="50.18" depart="177.00" departLane="random">
        <route edges="-5#4 -5#3 p15 p16 p17"/>
    </vehicle>
    <vehicle id="50.19" depart="178.00" departLane="random">
        <route edges="-5#4 -5#3 -5#22 -5#21 -5#1"/>
    </vehicle>
    <vehicle id="39.30" depart="179.00" departLane="random">
        <route edges="p10 p11 p12 p13 p14 p15 p16 p17"/>
    </vehicle>
    <vehicle id="39.31" depart="181.00" departLane="random">
        <route edges="p10 p11 p12 p13 p14 p15 p16 p17"/>
    </vehicle>
    <vehicle id="49.33" depart="181.00" departLane="random">
        <route edges="-p17 -p15 -p14 -p13 -p12 -p11 -p10"/>
    </vehicle>
    <vehicle id="50.20" depart="181.00" departLane="random">
        <route edges="-5#4 -5#3 -5#22 -5#21 -5#1"/>
    </vehicle>
    <vehicle id="49.34" depart="182.00" departLane="random">
        <route edges="-p17 -p15 -p14 -p13 -p12 -p11 -p10"/>
    </vehicle>
    <vehicle id="39.32" depart="183.00" departLane="random">
        <route edges="p10 p11 p12 p13 p14 -5#22 -5#21 -5#1"/>
    </vehicle>
    <vehicle id="49.35" depart="183.00" departLane="random">
        <route edges="-p17 -p15 -p14 -p13 -p12 -p11 -p10"/>
    </vehicle>
    <vehicle id="39.33" depart="184.00" departLane="random">
        <route edges="p10 p11 p12 p13 p14 p15 p16 p17"/>
    </vehicle>
    <vehicle id="50.21" depart="185.00" departLane="random">
        <route edges="-5#4 -5#3 p15 p16 p17"/>
    </vehicle>
    <vehicle id="51.25" depart="187.00" departLane="random">
        <route edges="5#1 5#2 -p14 -p13 -p12 -p11 -p10"/>
    </vehicle>
    <vehicle id="49.36" depart="188.00" departLane="random">
        <route edges="-p17 -p15 5#3 5#4"/>
    </vehicle>
    <vehicle id="51.26" depart="188.00" departLane="random">
        <route edges="5#1 5#2 p15 p16 p17"/>
    </vehicle>
    <vehicle id="49.37" depart="190.00" departLane="random">
        <route edges="-p17 -p15 5#3 5#4"/>
    </vehicle>
    <vehicle id="49.38" depart="191.00" departLane="random">
        <route edges="-p17 -p15 -p14 -p13 -p12 -p11 -p10"/>
    </vehicle>
    <vehicle id="41.7" depart="193.00" departLane="random">
        <route edges="4#1 4#2 4#3 4#4"/>
    </vehicle>
    <vehicle id="51.27" depart="194.00" departLane="random">
        <route edges="5#1 5#2 p15 p16 p17"/>
    </vehicle>
    <vehicle id="41.8" depart="196.00" departLane="random">
        <route edges="4#1 4#2 -p11 -p10"/>
    </vehicle>
    <vehicle id="49.39" depart="198.00" departLane="random">
        <route edges="-p17 -p15 -5#22 -5#21 -5#1"/>
    </vehicle>
    <vehicle id="49.40" depart="199.00" departLane="random">
        <route edges="-p17 -p15 -p14 -p13 -p12 -p11 -p10"/>
    </vehicle>
    <vehicle id="39.34" depart="202.00" departLane="random">
        <route edges="p10 p11 p12 p13 p14 -5#22 -5#21 -5#1"/>
    </vehicle>
    <vehicle id="41.9" depart="203.00" departLane="random">
        <route edges="4#1 4#2 4#3 4#4"/>
    </vehicle>
    <vehicle id="51.28" depart="204.00" departLane="random">
        <route edges="5#1 5#2 p15 p16 p17"/>
    </vehicle>
    <vehicle id="39.35" depart="205.00" departLane="random">
        <route edges="p10 p11 p12 p13 p14 p15 p16 p17"/>
    </vehicle>
    <vehicle id="40.21" depart="205.00" departLane="random">
        <route edges="-4#4 -4#3 -p11 -p10"/>
    </vehicle>
    <vehicle id="49.41" depart="205.00" departLane="random">
        <route edges="-p17 -p15 5#3 5#4"/>
    </vehicle>
    <vehicle id="49.42" depart="208.00" departLane="random">
        <route edges="-p17 -p15 -p14 -p13 -p12 -p11 -p10"/>
    </vehicle>
    <vehicle id="39.36" depart="210.00" departLane="random">
        <route edges="p10 p11 p12 p13 p14 p15 p16 p17"/>
    </vehicle>
    <vehicle id="40.22" depart="211.00" departLane="random">
        <route edges="-4#4 -4#3 -p11 -p10"/>
    </vehicle>
    <vehicle id="49.43" depart="211.00" departLane="random">
        <route edges="-p17 -p15 -5#22 -5#21 -5#1"/>
    </vehicle>
    <vehicle id="49.44" depart="212.00" departLane="random">
        <route edges="-p17 -p15 -p14 -p13 -p12 -p11 -p10"/>
    </vehicle>
    <vehicle id="51.29" depart="212.00" departLane="random">
        <route edges="5#1 5#2 5#3 5#4"/>
    </vehicle>
    <vehicle id="40.23" depart="214.00" departLane="random">
        <route edges="-4#4 -4#3 p12 p13 p14 p15 p16 p17"/>
    </vehicle>
    <vehicle id="39.37" depart="216.00" departLane="random">
        <route edges="p10 p11 p12 p13 p14 p15 p16 p17"/>
    </vehicle>
    <vehicle id="39.38" depart="219.00" departLane="random">
        <route edges="p10 p11 p12 p13 p14 p15 p16 p17"/>
    </vehicle>
    <vehicle id="40.24" depart="220.00" departLane="random">
        <route edges="-4#4 -4#3 -p11 -p10"/>
    </vehicle>
    <vehicle id="51.30" depart="220.00" departLane="random">
        <route edges="5#1 5#2 p15 p16 p17"/>
    </vehicle>
    <vehicle id="39.39" depart="223.00" departLane="random">
        <route edges="p10 p11 p12 p13 p14 p15 p16 p17"/>
    </vehicle>
    <vehicle id="51.31" depart="223.00" departLane="random">
        <route edges="5#1 5#2 -p14 -p13 -p12 -p11 -p10"/>
    </vehicle>
    <vehicle id="39.40" depart="224.00" departLane="random">
        <route edges="p10 p11 p12 p13 p14 p15 p16 p17"/>
    </vehicle>
    <vehicle id="51.32" depart="224.00" departLane="random">
        <route edges="5#1 5#2 -p14 -p13 -p12 -p11 -p10"/>
    </vehicle>
    <vehicle id="51.33" depart="225.00" departLane="random">
        <route edges="5#1 5#2 p15 p16 p17"/>
    </vehicle>
    <vehicle id="51.34" depart="226.00" departLane="random">
        <route edges="5#1 5#2 -p14 -p13 -p12 -p11 -p10"/>
    </vehicle>
    <vehicle id="50.22" depart="227.00" departLane="random">
        <route edges="-5#4 -5#3 p15 p16 p17"/>
    </vehicle>
    <vehicle id="49.45" depart="228.00" departLane="random">
        <route edges="-p17 -p15 -p14 -p13 -p12 -4#2 -4#1"/>
    </vehicle>
    <vehicle id="49.46" depart="229.00" departLane="random">
        <route edges="-p17 -p15 5#3 5#4"/>
    </vehicle>
    <vehicle id="51.35" depart="229.00" departLane="random">
        <route edges="5#1 5#2 p15 p16 p17"/>
    </vehicle>
    <vehicle id="49.47" depart="233.00" departLane="random">
        <route edges="-p17 -p15 -p14 -p13 -p12 -p11 -p10"/>
    </vehicle>
    <vehicle id="39.41" depart="238.00" departLane="random">
        <route edges="p10 p11 p12 p13 p14 p15 p16 p17"/>
    </vehicle>
    <vehicle id="49.48" depart="238.00" departLane="random">
        <route edges="-p17 -p15 -p14 -p13 -p12 -p11 -p10"/>
    </vehicle>
    <vehicle id="50.23" depart="241.00" departLane="random">
        <route edges="-5#4 -5#3 p15 p16 p17"/>
    </vehicle>
    <vehicle id="40.25" depart="242.00" departLane="random">
        <route edges="-4#4 -4#3 -p11 -p10"/>
    </vehicle>
    <vehicle id="51.36" depart="244.00" departLane="random">
        <route edges="5#1 5#2 5#3 5#4"/>
    </vehicle>
    <vehicle id="49.49" depart="245.00" departLane="random">
        <route edges="-p17 -p15 -p14 -p13 -p12 -p11 -p10"/>
    </vehicle>
    <vehicle id="51.37" depart="245.00" departLane="random">
        <route edges="5#1 5#2 p15 p16 p17"/>
    </vehicle>
    <vehicle id="39.42" depart="250.00" departLane="random">
        <route edges="p10 p11 p12 p13 p14 p15 p16 p17"/>
    </vehicle>
    <vehicle id="40.26" depart="255.00" departLane="random">
        <route edges="-4#4 -4#3 p12 p13 p14 p15 p16 p17"/>
    </vehicle>
    <vehicle id="49.50" depart="255.00" departLane="random">
        <route edges="-p17 -p15 -p14 -p13 -p12 -p11 -p10"/>
    </vehicle>
    <vehicle id="40.27" depart="256.00" departLane="random">
        <route edges="-4#4 -4#3 p12 p13 p14 p15 p16 p17"/>
    </vehicle>
    <vehicle id="51.38" depart="256.00" departLane="random">
        <route edges="5#1 5#2 p15 p16 p17"/>
    </vehicle>
    <vehicle id="39.43" depart="257.00" departLane="random">
        <route edges="p10 p11 p12 p13 p14 -5#22 -5#21 -5#1"/>
    </vehicle>
    <vehicle id="49.51" depart="257.00" departLane="random">
        <route edges="-p17 -p15 5#3 5#4"/>
    </vehicle>
    <vehicle id="51.39" depart="257.00" departLane="random">
        <route edges="5#1 5#2 -p14 -p13 -p12 4#3 4#4"/>
    </vehicle>
    <vehicle id="39.44" depart="258.00" departLane="random">
        <route edges="p10 p11 p12 p13 p14 p15 p16 p17"/>
    </vehicle>
    <vehicle id="49.52" depart="258.00" departLane="random">
        <route edges="-p17 -p15 -p14 -p13 -p12 -p11 -p10"/>
    </vehicle>
    <vehicle id="51.40" depart="259.00" departLane="random">
        <route edges="5#1 5#2 p15 p16 p17"/>
    </vehicle>
    <vehicle id="39.45" depart="262.00" departLane="random">
        <route edges="p10 p11 p12 p13 p14 p15 p16 p17"/>
    </vehicle>
    <vehicle id="49.53" depart="263.00" departLane="random">
        <route edges="-p17 -p15 -5#22 -5#21 -5#1"/>
    </vehicle>
    <vehicle id="39.46" depart="264.00" departLane="random">
        <route edges="p10 p11 p12 p13 p14 p15 p16 p17"/>
    </vehicle>
    <vehicle id="51.41" depart="264.00" departLane="random">
        <route edges="5#1 5#2 5#3 5#4"/>
    </vehicle>
    <vehicle id="39.47" depart="265.00" departLane="random">
        <route edges="p10 p11 p12 p13 p14 p15 p16 p17"/>
    </vehicle>
    <vehicle id="49.54" depart="266.00" departLane="random">
        <route edges="-p17 -p15 5#3 5#4"/>
    </vehicle>
    <vehicle id="50.24" depart="268.00" departLane="random">
        <route edges="-5#4 -5#3 p15 p16 p17"/>
    </vehicle>
    <vehicle id="40.28" depart="270.00" departLane="random">
        <route edges="-4#4 -4#3 -p11 -p10"/>
    </vehicle>
    <vehicle id="49.55" depart="270.00" departLane="random">
        <route edges="-p17 -p15 -p14 -p13 -p12 -p11 -p10"/>
    </vehicle>
    <vehicle id="39.48" depart="274.00" departLane="random">
        <route edges="p10 p11 p12 p13 p14 p15 p16 p17"/>
    </vehicle>
    <vehicle id="41.10" depart="274.00" departLane="random">
        <route edges="4#1 4#2 p12 p13 p14 p15 p16 p17"/>
    </vehicle>
    <vehicle id="39.49" depart="275.00" departLane="random">
        <route edges="p10 p11 p12 p13 p14 p15 p16 p17"/>
    </vehicle>
    <vehicle id="51.42" depart="276.00" departLane="random">
        <route edges="5#1 5#2 -p14 -p13 -p12 -p11 -p10"/>
    </vehicle>
    <vehicle id="39.50" depart="277.00" departLane="random">
        <route edges="p10 p11 4#3 4#4"/>
    </vehicle>
    <vehicle id="39.51" depart="279.00" departLane="random">
        <route edges="p10 p11 p12 p13 p14 p15 p16 p17"/>
    </vehicle>
    <vehicle id="40.29" depart="280.00" departLane="random">
        <route edges="-4#4 -4#3 p12 p13 p14 -5#22 -5#21 -5#1"/>
    </vehicle>
    <vehicle id="40.30" depart="282.00" departLane="random">
        <route edges="-4#4 -4#3 -p11 -p10"/>
    </vehicle>
    <vehicle id="49.56" depart="284.00" departLane="random">
        <route edges="-p17 -p15 -p14 -p13 -p12 -p11 -p10"/>
    </vehicle>
    <vehicle id="49.57" depart="285.00" departLane="random">
        <route edges="-p17 -p15 -p14 -p13 -p12 -p11 -p10"/>
    </vehicle>
    <vehicle id="41.11" depart="287.00" departLane="random">
        <route edges="4#1 4#2 -p11 -p10"/>
    </vehicle>
    <vehicle id="50.25" depart="287.00" departLane="random">
        <route edges="-5#4 -5#3 -5#22 -5#21 -5#1"/>
    </vehicle>
    <vehicle id="49.58" depart="288.00" departLane="random">
        <route edges="-p17 -p15 -p14 -p13 -p12 -p11 -p10"/>
    </vehicle>
    <vehicle id="40.31" depart="292.00" departLane="random">
        <route edges="-4#4 -4#3 p12 p13 p14 p15 p16 p17"/>
    </vehicle>
    <vehicle id="41.12" depart="294.00" departLane="random">
        <route edges="4#1 4#2 -p11 -p10"/>
    </vehicle>
    <vehicle id="50.26" depart="295.00" departLane="random">
        <route edges="-5#4 -5#3 p15 p16 p17"/>
    </vehicle>
    <vehicle id="39.52" depart="298.00" departLane="random">
        <route edges="p10 p11 -4#2 -4#1"/>
    </vehicle>
    <vehicle id="49.59" depart="299.00" departLane="random">
        <route edges="-p17 -p15 -p14 -p13 -p12 -p11 -p10"/>
    </vehicle>