<?xml version="1.0" encoding="UTF-8"?>

<!-- generated on 2024-07-26 12:24:49 by Eclipse SUMO netedit Version 1.20.0
<configuration xmlns:xsi="http://www.w3.org/2001/XMLSchema-instance" xsi:noNamespaceSchemaLocation="http://sumo.dlr.de/xsd/neteditConfiguration.xsd">

    <input>
        <sumo-net-file value="/home/wangzhi/Documents/plymouth_nixon_and_huron.net.xml"/>
    </input>

    <output>
        <output-file value="/home/wangzhi/Documents/plymouth_nixon_and_huron.net.xml"/>
        <output.street-names value="true"/>
    </output>

    <processing>
        <geometry.min-radius.fix.railways value="false"/>
        <geometry.max-grade.fix value="false"/>
        <offset.disable-normalization value="true"/>
        <lefthand value="0"/>
    </processing>

    <junctions>
        <no-turnarounds value="true"/>
        <junctions.corner-detail value="5"/>
        <junctions.limit-turn-speed value="5.50"/>
        <rectangular-lane-cut value="0"/>
    </junctions>

    <pedestrian>
        <walkingareas value="0"/>
    </pedestrian>

</configuration>
-->

<net version="1.20" junctionCornerDetail="5" limitTurnSpeed="5.50" xmlns:xsi="http://www.w3.org/2001/XMLSchema-instance" xsi:noNamespaceSchemaLocation="http://sumo.dlr.de/xsd/net_file.xsd">

    <location netOffset="-273927.66,-4684163.76" convBoundary="2521.27,2537.55,4113.56,2998.30" origBoundary="-83.742760,42.278475,-83.651009,42.325179" projParameter="+proj=utm +zone=17 +ellps=WGS84 +datum=WGS84 +units=m +no_defs"/>

    <type id="highway.secondary" priority="11" numLanes="1" speed="27.78" disallow="tram rail_urban rail rail_electric rail_fast ship" oneway="0"/>
    <type id="highway.tertiary" priority="10" numLanes="1" speed="22.22" disallow="tram rail_urban rail rail_electric rail_fast ship" oneway="0"/>

    <edge id=":J1_0" function="internal">
        <lane id=":J1_0_0" index="0" disallow="tram rail_urban rail rail_electric rail_fast ship cable_car subway" speed="20.12" length="8.80" shape="4009.17,2951.54 4011.67,2951.82 4013.47,2951.25 4015.28,2950.69 4017.76,2951.01"/>
        <lane id=":J1_0_1" index="1" disallow="tram rail_urban rail rail_electric rail_fast ship cable_car subway" speed="20.12" length="8.80" shape="4008.18,2954.58 4010.67,2954.86 4012.48,2954.29 4014.28,2953.73 4016.76,2954.05"/>
    </edge>
    <edge id=":huron_0" function="internal">
        <lane id=":huron_0_0" index="0" disallow="tram rail_urban rail rail_electric rail_fast ship cable_car subway" speed="8.04" length="14.43" shape="3176.14,2759.84 3170.95,2760.14 3167.24,2761.15 3165.01,2762.88 3164.26,2765.33"/>
    </edge>
    <edge id=":huron_1" function="internal">
        <lane id=":huron_1_0" index="0" disallow="tram rail_urban rail rail_electric rail_fast ship cable_car subway" speed="17.89" length="30.51" shape="3176.14,2759.84 3166.49,2759.25 3159.13,2758.11 3152.71,2757.00 3145.87,2756.52"/>
        <lane id=":huron_1_1" index="1" disallow="tram rail_urban rail rail_electric rail_fast ship cable_car subway" speed="17.89" length="30.51" shape="3176.18,2756.64 3166.52,2756.05 3159.14,2754.91 3152.71,2753.80 3145.86,2753.32"/>
    </edge>
    <edge id=":huron_3" function="internal">
        <lane id=":huron_3_0" index="0" disallow="tram rail_urban rail rail_electric rail_fast ship cable_car subway" speed="11.04" length="27.24" shape="3176.21,2753.44 3168.25,2752.40 3162.52,2749.48 3159.00,2744.67 3157.70,2737.98"/>
    </edge>
    <edge id=":huron_4" function="internal">
        <lane id=":huron_4_0" index="0" disallow="tram rail_urban rail rail_electric rail_fast ship cable_car subway" speed="7.57" length="12.25" shape="3170.50,2737.66 3170.95,2741.74 3172.06,2744.67 3173.83,2746.43 3176.27,2747.04"/>
    </edge>
    <edge id=":huron_5" function="internal">
        <lane id=":huron_5_0" index="0" disallow="tram rail_urban rail rail_electric rail_fast ship cable_car subway" speed="13.89" length="27.77" shape="3167.30,2737.74 3166.97,2746.50 3165.92,2752.99 3164.79,2758.75 3164.26,2765.33"/>
        <lane id=":huron_5_1" index="1" disallow="tram rail_urban rail rail_electric rail_fast ship cable_car subway" speed="13.89" length="27.77" shape="3164.10,2737.82 3163.77,2746.55 3162.72,2753.01 3161.59,2758.75 3161.06,2765.32"/>
    </edge>
    <edge id=":huron_7" function="internal">
        <lane id=":huron_7_0" index="0" disallow="tram rail_urban rail rail_electric rail_fast ship cable_car subway" speed="10.32" length="24.68" shape="3160.90,2737.90 3160.10,2744.62 3157.33,2749.44 3152.58,2752.33 3145.86,2753.32"/>
    </edge>
    <edge id=":huron_8" function="internal">
        <lane id=":huron_8_0" index="0" disallow="tram rail_urban rail rail_electric rail_fast ship cable_car subway" speed="7.26" length="11.70" shape="3145.83,2743.72 3149.67,2743.35 3152.40,2742.29 3154.01,2740.52 3154.50,2738.05"/>
    </edge>
    <edge id=":huron_9" function="internal">
        <lane id=":huron_9_0" index="0" disallow="tram rail_urban rail rail_electric rail_fast ship cable_car subway" speed="17.89" length="30.64" shape="3145.83,2743.72 3155.51,2744.20 3162.92,2745.32 3169.41,2746.47 3176.27,2747.04"/>
        <lane id=":huron_9_1" index="1" disallow="tram rail_urban rail rail_electric rail_fast ship cable_car subway" speed="17.89" length="30.64" shape="3145.84,2746.92 3155.51,2747.40 3162.91,2748.52 3169.38,2749.67 3176.24,2750.24"/>
    </edge>
    <edge id=":huron_11" function="internal">
        <lane id=":huron_11_0" index="0" disallow="tram rail_urban rail rail_electric rail_fast ship cable_car subway" speed="10.35" length="24.56" shape="3145.85,2750.12 3152.52,2751.05 3157.28,2753.89 3160.12,2758.65 3161.06,2765.32"/>
    </edge>
    <edge id=":huron_12" function="internal">
        <lane id=":huron_12_0" index="0" disallow="tram rail_urban rail rail_electric rail_fast ship cable_car subway" speed="7.31" length="11.72" shape="3151.46,2765.30 3151.12,2761.45 3150.07,2758.70 3148.32,2757.06 3145.87,2756.52"/>
    </edge>
    <edge id=":huron_13" function="internal">
        <lane id=":huron_13_0" index="0" disallow="tram rail_urban rail rail_electric rail_fast ship cable_car subway" speed="13.89" length="27.51" shape="3151.46,2765.30 3151.99,2756.67 3153.09,2750.29 3154.14,2744.60 3154.50,2738.05"/>
        <lane id=":huron_13_1" index="1" disallow="tram rail_urban rail rail_electric rail_fast ship cable_car subway" speed="13.89" length="27.51" shape="3154.66,2765.31 3155.19,2756.64 3156.29,2750.23 3157.34,2744.53 3157.70,2737.98"/>
    </edge>
    <edge id=":huron_15" function="internal">
        <lane id=":huron_15_0" index="0" disallow="tram rail_urban rail rail_electric rail_fast ship cable_car subway" speed="10.84" length="27.09" shape="3157.86,2765.32 3159.02,2758.65 3162.48,2753.92 3168.21,2751.11 3176.24,2750.24"/>
    </edge>
    <edge id=":huronN1_0" function="internal">
        <lane id=":huronN1_0_0" index="0" disallow="tram rail_urban rail rail_electric rail_fast ship cable_car subway" speed="13.89" length="7.83" shape="3164.18,2793.03 3164.17,2795.41 3164.11,2797.04 3163.98,2798.66 3163.72,2801.02"/>
        <lane id=":huronN1_0_1" index="1" disallow="tram rail_urban rail rail_electric rail_fast ship cable_car subway" speed="13.89" length="7.83" shape="3160.98,2793.02 3160.97,2795.30 3160.91,2796.85 3160.78,2798.40 3160.54,2800.66"/>
    </edge>
    <edge id=":huronN1_2" function="internal">
        <lane id=":huronN1_2_0" index="0" disallow="tram rail_urban rail rail_electric rail_fast ship cable_car subway" speed="13.89" length="7.87" shape="3154.18,2799.95 3153.91,2797.82 3152.93,2796.48 3151.87,2795.14 3151.38,2793.00"/>
        <lane id=":huronN1_2_1" index="1" disallow="tram rail_urban rail rail_electric rail_fast ship cable_car subway" speed="13.89" length="7.87" shape="3157.36,2800.30 3157.10,2798.08 3156.13,2796.67 3155.07,2795.25 3154.58,2793.01"/>
    </edge>
    <edge id=":huronS1_0" function="internal">
        <lane id=":huronS1_0_0" index="0" speed="13.89" length="8.00" shape="3152.30,2647.87 3152.10,2639.87"/>
        <lane id=":huronS1_0_1" index="1" speed="13.89" length="8.00" shape="3155.50,2647.79 3155.30,2639.79"/>
    </edge>
    <edge id=":huronS2_0" function="internal">
        <lane id=":huronS2_0_0" index="0" speed="13.89" length="8.00" shape="3151.01,2595.05 3150.81,2587.05"/>
        <lane id=":huronS2_0_1" index="1" speed="13.89" length="8.00" shape="3154.21,2594.97 3154.01,2586.97"/>
    </edge>
    <edge id=":huronS2_2" function="internal">
        <lane id=":huronS2_2_0" index="0" speed="13.89" length="8.81" shape="3160.41,2586.81 3160.97,2589.26 3162.11,2590.77 3163.25,2592.28 3163.81,2594.73"/>
        <lane id=":huronS2_2_1" index="1" speed="13.89" length="8.81" shape="3157.21,2586.89 3157.77,2589.34 3158.91,2590.85 3160.05,2592.36 3160.61,2594.81"/>
    </edge>
    <edge id=":nixon_0" function="internal">
        <lane id=":nixon_0_0" index="0" disallow="tram rail_urban rail rail_electric rail_fast ship cable_car subway" speed="7.33" length="11.74" shape="2916.13,2766.21 2915.75,2762.35 2914.68,2759.60 2912.92,2757.96 2910.47,2757.42"/>
    </edge>
    <edge id=":nixon_1" function="internal">
        <lane id=":nixon_1_0" index="0" disallow="tram rail_urban rail rail_electric rail_fast ship cable_car subway" speed="14.77" length="27.47" shape="2916.13,2766.21 2916.30,2758.39 2916.69,2750.58 2916.91,2743.72 2916.60,2738.76"/>
    </edge>
    <edge id=":nixon_2" function="internal">
        <lane id=":nixon_2_0" index="0" disallow="tram rail_urban rail rail_electric rail_fast ship cable_car subway" speed="9.65" length="21.18" shape="2919.33,2766.18 2919.97,2759.52 2921.98,2754.76 2925.38,2751.89 2930.15,2750.92"/>
    </edge>
    <edge id=":nixon_3" function="internal">
        <lane id=":nixon_3_0" index="0" disallow="tram rail_urban rail rail_electric rail_fast ship cable_car subway" speed="7.04" length="10.78" shape="2930.20,2760.52 2926.83,2760.88 2924.43,2761.94 2923.00,2763.70 2922.53,2766.16"/>
    </edge>
    <edge id=":nixon_4" function="internal">
        <lane id=":nixon_4_0" index="0" disallow="tram rail_urban rail rail_electric rail_fast ship cable_car subway" speed="15.65" length="20.06" shape="2930.20,2760.52 2924.31,2760.04 2920.33,2758.96 2916.36,2757.89 2910.47,2757.42"/>
        <lane id=":nixon_4_1" index="1" disallow="tram rail_urban rail rail_electric rail_fast ship cable_car subway" speed="15.65" length="20.06" shape="2930.18,2757.32 2924.29,2756.84 2920.32,2755.76 2916.34,2754.69 2910.45,2754.22"/>
    </edge>
    <edge id=":nixon_6" function="internal">
        <lane id=":nixon_6_0" index="0" disallow="tram rail_urban rail rail_electric rail_fast ship cable_car subway" speed="10.66" length="22.39" shape="2930.17,2754.12 2925.32,2753.18 2921.45,2750.30 2918.54,2745.50 2916.60,2738.76"/>
    </edge>
    <edge id=":nixon_7" function="internal">
        <lane id=":nixon_7_0" index="0" disallow="tram rail_urban rail rail_electric rail_fast ship cable_car subway" speed="8.37" length="13.45" shape="2922.89,2737.58 2924.06,2742.02 2925.66,2745.19 2927.69,2747.09 2930.14,2747.72"/>
    </edge>
    <edge id=":nixon_8" function="internal">
        <lane id=":nixon_8_0" index="0" disallow="tram rail_urban rail rail_electric rail_fast ship cable_car subway" speed="14.77" length="28.64" shape="2922.89,2737.58 2923.61,2745.49 2923.39,2753.68 2922.83,2760.96 2922.53,2766.16"/>
    </edge>
    <edge id=":nixon_9" function="internal">
        <lane id=":nixon_9_0" index="0" disallow="tram rail_urban rail rail_electric rail_fast ship cable_car subway" speed="9.25" length="21.96" shape="2919.75,2738.17 2920.29,2745.17 2918.93,2750.17 2915.65,2753.19 2910.45,2754.22"/>
    </edge>
    <edge id=":nixon_10" function="internal">
        <lane id=":nixon_10_0" index="0" disallow="tram rail_urban rail rail_electric rail_fast ship cable_car subway" speed="6.47" length="10.15" shape="2910.39,2744.62 2913.52,2744.24 2915.60,2743.14 2916.63,2741.31 2916.60,2738.76"/>
    </edge>
    <edge id=":nixon_11" function="internal">
        <lane id=":nixon_11_0" index="0" disallow="tram rail_urban rail rail_electric rail_fast ship cable_car subway" speed="15.65" length="20.07" shape="2910.39,2744.62 2916.29,2745.09 2920.26,2746.16 2924.24,2747.24 2930.14,2747.72"/>
        <lane id=":nixon_11_1" index="1" disallow="tram rail_urban rail rail_electric rail_fast ship cable_car subway" speed="15.65" length="20.07" shape="2910.41,2747.82 2916.31,2748.29 2920.28,2749.36 2924.26,2750.44 2930.15,2750.92"/>
    </edge>
    <edge id=":nixon_13" function="internal">
        <lane id=":nixon_13_0" index="0" disallow="tram rail_urban rail rail_electric rail_fast ship cable_car subway" speed="9.85" length="22.00" shape="2910.43,2751.02 2915.68,2751.94 2919.45,2754.77 2921.73,2759.51 2922.53,2766.16"/>
    </edge>
    <edge id=":nixonN1_0" function="internal">
        <lane id=":nixonN1_0_0" index="0" disallow="tram rail_urban rail rail_electric rail_fast ship cable_car subway" speed="13.89" length="8.40" shape="2919.59,2801.32 2919.07,2798.86 2917.96,2797.33 2916.85,2795.80 2916.33,2793.35"/>
        <lane id=":nixonN1_0_1" index="1" disallow="tram rail_urban rail rail_electric rail_fast ship cable_car subway" speed="13.89" length="8.40" shape="2919.59,2801.32 2919.53,2793.32"/>
    </edge>
    <edge id=":nixonN1_2" function="internal">
        <lane id=":nixonN1_2_0" index="0" disallow="tram rail_urban rail rail_electric rail_fast ship cable_car subway" speed="13.89" length="8.00" shape="2922.73,2793.30 2922.79,2801.30"/>
    </edge>
    <edge id=":nixonS1_0" function="internal">
        <lane id=":nixonS1_0_0" index="0" disallow="tram rail_urban rail rail_electric rail_fast ship cable_car subway" speed="15.65" length="8.64" shape="2914.02,2725.07 2913.51,2722.57 2912.98,2720.88 2912.12,2719.34 2910.64,2717.26"/>
    </edge>
    <edge id=":nixonS1_1" function="internal">
        <lane id=":nixonS1_1_0" index="0" disallow="tram rail_urban rail rail_electric rail_fast ship cable_car subway" speed="15.65" length="10.71" shape="2913.23,2715.37 2915.43,2717.64 2917.49,2719.10 2919.19,2720.83 2920.31,2723.88"/>
        <lane id=":nixonS1_1_1" index="1" disallow="tram rail_urban rail rail_electric rail_fast ship cable_car subway" speed="15.65" length="10.71" shape="2913.23,2715.37 2914.95,2717.80 2915.95,2719.60 2916.58,2721.56 2917.17,2724.47"/>
    </edge>
    <edge id=":plymouth16_0" function="internal">
        <lane id=":plymouth16_0_0" index="0" disallow="tram rail_urban rail rail_electric rail_fast ship cable_car subway" speed="15.65" length="8.00" shape="2856.02,2757.79 2848.02,2757.85"/>
        <lane id=":plymouth16_0_1" index="1" disallow="tram rail_urban rail rail_electric rail_fast ship cable_car subway" speed="15.65" length="8.00" shape="2856.00,2754.59 2848.00,2754.65"/>
    </edge>
    <edge id=":plymouth16_2" function="internal">
        <lane id=":plymouth16_2_0" index="0" disallow="tram rail_urban rail rail_electric rail_fast ship cable_car subway" speed="15.65" length="8.81" shape="2847.96,2748.25 2850.42,2747.73 2851.95,2746.62 2853.48,2745.51 2855.94,2744.99"/>
        <lane id=":plymouth16_2_1" index="1" disallow="tram rail_urban rail rail_electric rail_fast ship cable_car subway" speed="15.65" length="8.81" shape="2847.98,2751.45 2850.44,2750.93 2851.97,2749.82 2853.50,2748.71 2855.96,2748.19"/>
    </edge>
    <edge id=":plymouth18_0" function="internal">
        <lane id=":plymouth18_0_0" index="0" disallow="tram rail_urban rail rail_electric rail_fast ship cable_car subway" speed="15.65" length="8.81" shape="2982.97,2757.12 2980.51,2757.63 2978.97,2758.74 2977.44,2759.85 2974.98,2760.35"/>
        <lane id=":plymouth18_0_1" index="1" disallow="tram rail_urban rail rail_electric rail_fast ship cable_car subway" speed="15.65" length="8.81" shape="2982.96,2753.92 2980.50,2754.43 2978.96,2755.54 2977.43,2756.65 2974.97,2757.15"/>
    </edge>
    <edge id=":plymouth18_2" function="internal">
        <lane id=":plymouth18_2_0" index="0" disallow="tram rail_urban rail rail_electric rail_fast ship cable_car subway" speed="15.65" length="8.00" shape="2974.93,2747.55 2982.93,2747.52"/>
        <lane id=":plymouth18_2_1" index="1" disallow="tram rail_urban rail rail_electric rail_fast ship cable_car subway" speed="15.65" length="8.00" shape="2974.94,2750.75 2982.94,2750.72"/>
    </edge>
    <edge id=":plymouth19_0" function="internal">
        <lane id=":plymouth19_0_0" index="0" disallow="tram rail_urban rail rail_electric rail_fast ship cable_car subway" speed="15.65" length="8.00" shape="3104.17,2756.67 3096.17,2756.70"/>
        <lane id=":plymouth19_0_1" index="1" disallow="tram rail_urban rail rail_electric rail_fast ship cable_car subway" speed="15.65" length="8.00" shape="3104.16,2753.47 3096.15,2753.50"/>
    </edge>
    <edge id=":plymouth19_2" function="internal">
        <lane id=":plymouth19_2_0" index="0" disallow="tram rail_urban rail rail_electric rail_fast ship cable_car subway" speed="15.65" length="8.80" shape="3096.13,2747.10 3098.59,2746.60 3100.13,2745.49 3101.66,2744.38 3104.12,2743.87"/>
        <lane id=":plymouth19_2_1" index="1" disallow="tram rail_urban rail rail_electric rail_fast ship cable_car subway" speed="15.65" length="8.80" shape="3096.14,2750.30 3098.60,2749.80 3100.14,2748.69 3101.67,2747.58 3104.13,2747.07"/>
    </edge>
    <edge id=":plymouth21_0" function="internal">
        <lane id=":plymouth21_0_0" index="0" disallow="tram rail_urban rail rail_electric rail_fast ship cable_car subway" speed="20.12" length="8.42" shape="3344.32,2758.22 3341.99,2758.56 3340.52,2759.58 3339.06,2760.65 3336.72,2761.13"/>
        <lane id=":plymouth21_0_1" index="1" disallow="tram rail_urban rail rail_electric rail_fast ship cable_car subway" speed="20.12" length="8.42" shape="3344.53,2755.02 3342.15,2755.36 3340.64,2756.38 3339.13,2757.45 3336.75,2757.93"/>
    </edge>
    <edge id=":plymouth21_2" function="internal">
        <lane id=":plymouth21_2_0" index="0" disallow="tram rail_urban rail rail_electric rail_fast ship cable_car subway" speed="20.12" length="8.06" shape="3336.81,2748.33 3344.96,2748.64"/>
        <lane id=":plymouth21_2_1" index="1" disallow="tram rail_urban rail rail_electric rail_fast ship cable_car subway" speed="20.12" length="8.06" shape="3336.79,2751.53 3344.75,2751.83"/>
    </edge>

    <edge id="-4#1" from="nixonS1" to="nixonS2" priority="10" type="highway.tertiary" shape="2914.72,2720.13 2908.29,2711.32 2896.84,2705.89 2868.20,2699.34 2850.12,2693.28 2838.44,2685.40 2827.96,2673.09 2824.29,2655.32 2825.31,2637.80 2832.41,2623.33 2842.46,2611.24 2853.55,2601.64 2880.28,2591.64 2907.70,2589.88">
        <lane id="-4#1_0" index="0" disallow="tram rail_urban rail rail_electric rail_fast ship cable_car subway" speed="15.65" length="239.23" shape="2910.64,2717.26 2907.24,2712.59 2896.31,2707.41 2867.77,2700.88 2849.41,2694.73 2837.36,2686.60 2826.48,2673.82 2822.68,2655.44 2823.73,2637.38 2831.06,2622.45 2841.31,2610.12 2852.72,2600.24 2879.94,2590.06 2907.60,2588.28"/>
    </edge>
    <edge id="-4#2" from="nixon" to="nixonS1" priority="10" type="highway.tertiary">
        <lane id="-4#2_0" index="0" disallow="tram rail_urban rail rail_electric rail_fast ship cable_car subway" speed="15.65" length="13.94" shape="2916.60,2738.76 2914.02,2725.07"/>
    </edge>
    <edge id="-4#3" from="nixonN1" to="nixon" name="Nixon Road" priority="10" type="highway.tertiary" shape="2921.16,2797.31 2920.94,2767.16 2920.83,2752.56">
        <lane id="-4#3_0" index="0" disallow="tram rail_urban rail rail_electric rail_fast ship cable_car subway" speed="13.89" length="27.14" shape="2916.33,2793.35 2916.14,2767.20 2916.13,2766.21">
            <param key="origId" value="441190742"/>
        </lane>
        <lane id="-4#3_1" index="1" disallow="tram rail_urban rail rail_electric rail_fast ship cable_car subway" speed="13.89" length="27.14" shape="2919.53,2793.32 2919.34,2767.17 2919.33,2766.18">
            <param key="origId" value="441190742"/>
        </lane>
    </edge>
    <edge id="-4#4" from="nixonN3" to="nixonN1" name="Nixon Road" priority="10" type="highway.tertiary" shape="2919.32,2998.30 2920.94,2990.90 2922.51,2979.16 2922.27,2946.92 2921.95,2910.20 2921.72,2872.42 2921.33,2820.81 2921.16,2797.31">
        <lane id="-4#4_0" index="0" disallow="tram rail_urban rail rail_electric rail_fast ship cable_car subway" speed="13.89" length="196.92" shape="2917.76,2997.96 2919.36,2990.62 2920.91,2979.06 2920.67,2946.93 2920.35,2910.21 2920.12,2872.43 2919.73,2820.82 2919.59,2801.32">
            <param key="origId" value="1162299121 441190744"/>
        </lane>
    </edge>
    <edge id="-5#1" from="huronS2" to="huronS3" priority="-1">
        <lane id="-5#1_0" index="0" speed="13.89" length="49.40" shape="3150.81,2587.05 3149.60,2537.67"/>
        <lane id="-5#1_1" index="1" speed="13.89" length="49.40" shape="3154.01,2586.97 3152.80,2537.59"/>
    </edge>
    <edge id="-5#21" from="huronS1" to="huronS2" priority="-1">
        <lane id="-5#21_0" index="0" speed="13.89" length="44.84" shape="3148.90,2639.95 3147.81,2595.12"/>
        <lane id="-5#21_1" index="1" speed="13.89" length="44.84" shape="3152.10,2639.87 3151.01,2595.05"/>
        <lane id="-5#21_2" index="2" speed="13.89" length="44.84" shape="3155.30,2639.79 3154.21,2594.97"/>
    </edge>
    <edge id="-5#22" from="huron" to="huronS1" priority="-1">
        <lane id="-5#22_0" index="0" speed="13.89" length="90.21" shape="3154.50,2738.05 3152.30,2647.87"/>
        <lane id="-5#22_1" index="1" speed="13.89" length="90.21" shape="3157.70,2737.98 3155.50,2647.79"/>
    </edge>
    <edge id="-5#3" from="huronN1" to="huron" name="Huron Parkway" priority="10" type="highway.tertiary" shape="3159.37,2796.72 3159.38,2792.93 3159.46,2764.90 3159.49,2751.67">
        <lane id="-5#3_0" index="0" disallow="tram rail_urban rail rail_electric rail_fast ship cable_car subway" speed="13.89" length="27.70" shape="3151.38,2793.00 3151.46,2765.30">
            <param key="origId" value="142178743"/>
        </lane>
        <lane id="-5#3_1" index="1" disallow="tram rail_urban rail rail_electric rail_fast ship cable_car subway" speed="13.89" length="27.70" shape="3154.58,2793.01 3154.66,2765.31">
            <param key="origId" value="142178743"/>
        </lane>
        <lane id="-5#3_2" index="2" disallow="tram rail_urban rail rail_electric rail_fast ship cable_car subway" speed="13.89" length="27.70" shape="3157.78,2793.02 3157.86,2765.32">
            <param key="origId" value="142178743"/>
        </lane>
        <param key="origTo" value="62500824"/>
    </edge>
    <edge id="-5#4" from="huronN2" to="huronN1" name="Huron Parkway" priority="10" type="highway.tertiary" shape="3064.16,2957.28 3078.95,2944.22 3112.54,2910.92 3125.46,2893.86 3136.31,2879.56 3146.91,2854.31 3151.74,2841.62 3156.75,2819.96 3157.64,2812.07 3159.37,2796.72">
        <lane id="-5#4_0" index="0" disallow="tram rail_urban rail rail_electric rail_fast ship cable_car subway" speed="13.89" length="186.82" shape="3060.98,2953.68 3075.67,2940.71 3108.92,2907.75 3121.63,2890.96 3132.12,2877.14 3142.45,2852.53 3147.14,2840.22 3152.01,2819.15 3152.87,2811.53 3154.18,2799.95">
            <param key="origId" value="441190721 1162299113"/>
        </lane>
        <lane id="-5#4_1" index="1" disallow="tram rail_urban rail rail_electric rail_fast ship cable_car subway" speed="13.89" length="186.82" shape="3063.10,2956.08 3077.86,2943.05 3111.33,2909.86 3124.18,2892.89 3134.91,2878.75 3145.42,2853.72 3150.21,2841.15 3155.17,2819.69 3156.05,2811.89 3157.36,2800.30">
            <param key="origId" value="441190721 1162299113"/>
        </lane>
    </edge>
    <edge id="-p10" from="plymouth16" to="traverWood" name="Plymouth Road" priority="11" type="highway.secondary" shape="2851.99,2753.02 2777.88,2753.54 2722.80,2753.91 2718.24,2753.95 2693.55,2753.51 2655.49,2752.83 2624.19,2749.27 2598.14,2744.99 2553.00,2731.87 2531.02,2722.26 2521.27,2718.00">
        <lane id="-p10_0" index="0" disallow="tram rail_urban rail rail_electric rail_fast ship cable_car subway" speed="15.65" length="333.39" shape="2848.02,2757.85 2777.91,2758.34 2722.83,2758.71 2718.22,2758.75 2693.46,2758.31 2655.18,2757.63 2623.53,2754.03 2597.08,2749.68 2551.36,2736.39 2529.10,2726.66 2519.35,2722.40">
            <param key="origId" value="441190747"/>
        </lane>
        <lane id="-p10_1" index="1" disallow="tram rail_urban rail rail_electric rail_fast ship cable_car subway" speed="15.65" length="333.39" shape="2848.00,2754.65 2777.89,2755.14 2722.81,2755.51 2718.23,2755.55 2693.52,2755.11 2655.39,2754.43 2623.97,2750.86 2597.79,2746.55 2552.45,2733.38 2530.38,2723.73 2520.63,2719.47">
            <param key="origId" value="441190747"/>
        </lane>
    </edge>
    <edge id="-p11" from="nixon" to="plymouth16" name="Plymouth Road" priority="11" type="highway.secondary" shape="2920.83,2752.56 2909.38,2752.63 2851.99,2753.02">
        <lane id="-p11_0" index="0" disallow="tram rail_urban rail rail_electric rail_fast ship cable_car subway" speed="15.65" length="54.45" shape="2910.47,2757.42 2909.41,2757.43 2856.02,2757.79">
            <param key="origId" value="897491919"/>
        </lane>
        <lane id="-p11_1" index="1" disallow="tram rail_urban rail rail_electric rail_fast ship cable_car subway" speed="15.65" length="54.45" shape="2910.45,2754.22 2909.39,2754.23 2856.00,2754.59">
            <param key="origId" value="897491919"/>
        </lane>
    </edge>
    <edge id="-p12" from="plymouth18" to="nixon" name="Plymouth Road" priority="11" type="highway.secondary" shape="2978.95,2752.34 2931.64,2752.51 2920.83,2752.56">
        <lane id="-p12_0" index="0" disallow="tram rail_urban rail rail_electric rail_fast ship cable_car subway" speed="15.65" length="44.78" shape="2974.98,2760.35 2931.67,2760.51 2930.20,2760.52">
            <param key="origId" value="897491920 897491918"/>
        </lane>
        <lane id="-p12_1" index="1" disallow="tram rail_urban rail rail_electric rail_fast ship cable_car subway" speed="15.65" length="44.78" shape="2974.97,2757.15 2931.66,2757.31 2930.18,2757.32">
            <param key="origId" value="897491920 897491918"/>
        </lane>
        <lane id="-p12_2" index="2" disallow="tram rail_urban rail rail_electric rail_fast ship cable_car subway" speed="15.65" length="44.78" shape="2974.96,2753.95 2931.65,2754.11 2930.17,2754.12">
            <param key="origId" value="897491920 897491918"/>
        </lane>
    </edge>
    <edge id="-p13" from="plymouth19" to="plymouth18" name="Plymouth Road" priority="11" type="highway.secondary" shape="3100.15,2751.89 3087.97,2751.93 2994.38,2752.28 2978.95,2752.34">
        <lane id="-p13_0" index="0" disallow="tram rail_urban rail rail_electric rail_fast ship cable_car subway" speed="15.65" length="113.20" shape="3096.17,2756.70 3087.99,2756.73 2994.40,2757.08 2982.97,2757.12">
            <param key="origId" value="897491920 897491918"/>
        </lane>
        <lane id="-p13_1" index="1" disallow="tram rail_urban rail rail_electric rail_fast ship cable_car subway" speed="15.65" length="113.20" shape="3096.15,2753.50 3087.98,2753.53 2994.39,2753.88 2982.96,2753.92">
            <param key="origId" value="897491920 897491918"/>
        </lane>
    </edge>
    <edge id="-p14" from="huron" to="plymouth19" name="Plymouth Road" priority="11" type="highway.secondary" shape="3159.49,2751.67 3141.44,2751.73 3107.60,2751.86 3100.15,2751.89">
        <lane id="-p14_0" index="0" disallow="tram rail_urban rail rail_electric rail_fast ship cable_car subway" speed="15.65" length="41.70" shape="3145.87,2756.52 3141.46,2756.53 3107.62,2756.66 3104.17,2756.67">
            <param key="origId" value="412646493"/>
        </lane>
        <lane id="-p14_1" index="1" disallow="tram rail_urban rail rail_electric rail_fast ship cable_car subway" speed="15.65" length="41.70" shape="3145.86,2753.32 3141.45,2753.33 3107.61,2753.46 3104.16,2753.47">
            <param key="origId" value="412646493"/>
        </lane>
        <param key="origFrom" value="62500824"/>
    </edge>
    <edge id="-p15" from="plymouth21" to="huron" name="Plymouth Road" priority="11" type="highway.secondary" shape="3340.69,2753.16 3256.68,2752.57 3237.81,2752.43 3231.75,2752.39 3175.37,2751.83 3159.49,2751.67">
        <lane id="-p15_0" index="0" disallow="tram rail_urban rail rail_electric rail_fast ship cable_car subway" speed="20.12" length="160.58" shape="3336.72,2761.13 3256.62,2760.57 3237.75,2760.43 3231.68,2760.39 3176.14,2759.84">
            <param key="origId" value="441190750 222786843"/>
        </lane>
        <lane id="-p15_1" index="1" disallow="tram rail_urban rail rail_electric rail_fast ship cable_car subway" speed="20.12" length="160.58" shape="3336.75,2757.93 3256.65,2757.37 3237.78,2757.23 3231.71,2757.19 3176.18,2756.64">
            <param key="origId" value="441190750 222786843"/>
        </lane>
        <lane id="-p15_2" index="2" disallow="tram rail_urban rail rail_electric rail_fast ship cable_car subway" speed="20.12" length="160.58" shape="3336.77,2754.73 3256.67,2754.17 3237.80,2754.03 3231.74,2753.99 3176.21,2753.44">
            <param key="origId" value="441190750 222786843"/>
        </lane>
        <param key="origTo" value="62500824"/>
    </edge>
    <edge id="-p17" from="green" to="plymouth21" name="Plymouth Road" priority="11" type="highway.secondary" shape="4113.56,2992.10 4098.15,2986.91 4062.87,2975.04 4013.31,2957.94 3972.43,2944.63 3956.26,2939.18 3810.04,2890.00 3730.67,2863.31 3724.29,2861.09 3712.42,2857.11 3709.38,2856.09 3702.70,2853.87 3694.43,2851.12 3677.55,2845.44 3593.93,2817.19 3584.52,2814.01 3494.84,2783.71 3460.97,2772.66 3455.77,2770.96 3412.06,2759.89 3383.22,2756.03 3340.69,2753.16">